#---------------------------------------------------------------------------
#  CTI File converted from Solution Object
#---------------------------------------------------------------------------

units(length = "cm", time = "s", quantity = "mol", act_energy = "cal/mol")

ideal_gas(name = "gas", 
     elements = "N H O C", 
     species = """ N2 H2 H O2 O H2O OH HO2 CO CO2 CH4 CH3 CH3OH CH2O 
                 C2H4 NO N2O NO2 N HCN CH3NO2 """, 
#    species_qss = """ H2O2 C CH CH3O2 CH3O HCO C2H6 C2H5 C2H3 HNO NH NNH 
#                 CN NCN NCO H2CN CH2 CH2(S) """, 
     reactions = "all", 
     transport = "Mix", 
     kinetics = "custom", 
     initial_state = state(temperature = 3.000000E+02, pressure= 1.013250E+05)   )       

#---------------------------------------------------------------------------
#  Species data
#---------------------------------------------------------------------------

species(name = "N2",
    atoms = "N:2", 
    thermo = (
       NASA(   [200.0, 1050.0], [3.731006820e+00, -1.831597300e-03,
                4.323246620e-06, -3.043781510e-09,
                7.460715620e-13, -1.062874260e+03,
                2.168211980e+00]  ),
       NASA(   [1050.0, 3500.0], [2.811660730e+00, 1.670673530e-03,
                -6.799974280e-07, 1.328813790e-10,
                -1.027674420e-14,
                -8.698115790e+02, 6.648380500e+00]  )
               ),
    transport = gas_transport(
                   geom = "linear",
                   diam = 3.621, 
                   well_depth = 97.53, 
                   polar = 1.76, 
                   rot_relax = 4.0) 
        )

species(name = "H2",
    atoms = "H:2", 
    thermo = (
       NASA(   [200.0, 700.0], [2.642044380e+00, 5.495292740e-03,
                -1.271636340e-05, 1.287491730e-08,
                -4.700277490e-12,
                -9.432366140e+02,
                -5.122311020e-01]  ),
       NASA(   [700.0, 3500.0], [3.781998810e+00, -1.018732590e-03,
                1.242262330e-06, -4.190118980e-10,
                4.755437930e-14, -1.102830230e+03,
                -5.605259100e+00]  )
               ),
    transport = gas_transport(
                   geom = "linear",
                   diam = 2.9200000000000004, 
                   well_depth = 38.0, 
                   polar = 0.7900000000000001, 
                   rot_relax = 280.0) 
        )

species(name = "H",
    atoms = "H:1", 
    thermo = (
       NASA(   [200.0, 860.0], [2.499505440e+00, 2.991640460e-06,
                -5.927597590e-09, 4.878101650e-12,
                -1.455393200e-15, 2.547378660e+04,
                -4.445740180e-01]  ),
       NASA(   [860.0, 3500.0], [2.500314930e+00, -7.734068280e-07,
                6.393453460e-10, -2.125517910e-13,
                2.444791910e-17, 2.547364740e+04,
                -4.483572280e-01]  )
               ),
    transport = gas_transport(
                   geom = "atom",
                   diam = 2.05, 
                   well_depth = 145.0, 
                   polar = 0.0, 
                   rot_relax = 0.0) 
        )

species(name = "O2",
    atoms = "O:2", 
    thermo = (
       NASA(   [200.0, 700.0], [3.744039210e+00, -2.797401470e-03,
                9.801225580e-06, -1.032596430e-08,
                3.799312470e-12, -1.060698270e+03,
                3.821326460e+00]  ),
       NASA(   [700.0, 3500.0], [2.820124080e+00, 2.482113570e-03,
                -1.512020940e-06, 4.485562010e-10,
                -4.873056680e-14,
                -9.313501480e+02, 7.949145520e+00]  )
               ),
    transport = gas_transport(
                   geom = "linear",
                   diam = 3.458, 
                   well_depth = 107.4, 
                   polar = 1.6, 
                   rot_relax = 3.8) 
        )

species(name = "O",
    atoms = "O:1", 
    thermo = (
       NASA(   [200.0, 720.0], [3.147992010e+00, -3.111740650e-03,
                6.181378970e-06, -5.638087980e-09,
                1.948660160e-12, 2.913091180e+04,
                2.134465490e+00]  ),
       NASA(   [720.0, 3500.0], [2.625491430e+00, -2.089596440e-04,
                1.339185460e-07, -3.858758960e-11,
                4.389186890e-15, 2.920615190e+04,
                4.483585190e+00]  )
               ),
    transport = gas_transport(
                   geom = "atom",
                   diam = 2.7500000000000004, 
                   well_depth = 80.0, 
                   polar = 0.0, 
                   rot_relax = 0.0) 
        )

species(name = "H2O",
    atoms = "H:2  O:1", 
    thermo = (
       NASA(   [200.0, 1420.0], [4.060611720e+00, -8.658071890e-04,
                3.244095280e-06, -1.802430790e-09,
                3.324832930e-13, -3.028313140e+04,
                -2.961504810e-01]  ),
       NASA(   [1420.0, 3500.0], [2.667770750e+00, 3.057688490e-03,
                -9.004424110e-07, 1.433615520e-10,
                -1.008578170e-14,
                -2.988756450e+04, 6.911911310e+00]  )
               ),
    transport = gas_transport(
                   geom = "nonlinear",
                   diam = 2.6050000000000004, 
                   well_depth = 572.4, 
                   polar = 0.0, 
                   rot_relax = 4.0, 
                   dipole= 1.8440005262719967) 
        )

species(name = "OH",
    atoms = "H:1  O:1", 
    thermo = (
       NASA(   [200.0, 1700.0], [3.913546310e+00, -1.662759260e-03,
                2.309200290e-06, -1.023595080e-09,
                1.588296290e-13, 3.400050470e+03,
                2.054747190e-01]  ),
       NASA(   [1700.0, 3500.0], [2.498673690e+00, 1.666352790e-03,
                -6.282515160e-07, 1.283468060e-10,
                -1.057358940e-14, 3.881107160e+03,
                7.782188620e+00]  )
               ),
    transport = gas_transport(
                   geom = "linear",
                   diam = 2.7500000000000004, 
                   well_depth = 80.0, 
                   polar = 0.0, 
                   rot_relax = 0.0) 
        )

species(name = "H2O2",
    atoms = "H:2  O:2", 
    thermo = (
       NASA(   [200.0, 1800.0], [3.347742240e+00, 7.050054370e-03,
                -3.845220060e-06, 1.167206610e-09,
                -1.476181050e-13,
                -1.757847850e+04, 7.178688510e+00]  ),
       NASA(   [1800.0, 3500.0], [4.768696390e+00, 3.892378480e-03,
                -1.213823490e-06, 1.926152850e-10,
                -1.225819900e-14,
                -1.809002200e+04,
                -5.118117770e-01]  )
               ),
    transport = gas_transport(
                   geom = "nonlinear",
                   diam = 3.458, 
                   well_depth = 107.4, 
                   polar = 0.0, 
                   rot_relax = 3.8) 
        )

species(name = "HO2",
    atoms = "H:1  O:2", 
    thermo = (
       NASA(   [200.0, 700.0], [3.619942990e+00, 1.058057050e-03,
                5.066789410e-06, -6.338007620e-09,
                2.415972810e-12, 3.158982340e+02,
                6.444114820e+00]  ),
       NASA(   [700.0, 3500.0], [3.023918890e+00, 4.463909070e-03,
                -2.231464920e-06, 6.127107990e-10,
                -6.642662370e-14, 3.993416090e+02,
                9.106999730e+00]  )
               ),
    transport = gas_transport(
                   geom = "nonlinear",
                   diam = 3.458, 
                   well_depth = 107.4, 
                   polar = 0.0, 
                   rot_relax = 1.0) 
        )

species(name = "CO",
    atoms = "C:1  O:1", 
    thermo = (
       NASA(   [200.0, 960.0], [3.757238910e+00, -2.144652410e-03,
                5.420790050e-06, -4.170259630e-09,
                1.119011270e-12, -1.435755300e+04,
                2.799767990e+00]  ),
       NASA(   [960.0, 3500.0], [2.792553810e+00, 1.874868860e-03,
                -8.597119260e-07, 1.912000700e-10,
                -1.678552860e-14,
                -1.417233350e+04, 7.414435600e+00]  )
               ),
    transport = gas_transport(
                   geom = "linear",
                   diam = 3.65, 
                   well_depth = 98.1, 
                   polar = 1.9500000000000002, 
                   rot_relax = 1.8) 
        )

species(name = "CO2",
    atoms = "C:1  O:2", 
    thermo = (
       NASA(   [200.0, 1450.0], [2.316843470e+00, 9.227550360e-03,
                -7.756540930e-06, 3.282253600e-09,
                -5.487224820e-13,
                -4.836260670e+04, 1.007862340e+01]  ),
       NASA(   [1450.0, 3500.0], [4.708764680e+00, 2.629147040e-03,
                -9.306064620e-07, 1.438929200e-10,
                -7.625814140e-15,
                -4.905626390e+04,
                -2.349764520e+00]  )
               ),
    transport = gas_transport(
                   geom = "linear",
                   diam = 3.763, 
                   well_depth = 244.0, 
                   polar = 2.6500000000000004, 
                   rot_relax = 2.1) 
        )

species(name = "CH4",
    atoms = "C:1  H:4", 
    thermo = (
       NASA(   [300.0, 700.0], [5.239673350e+00, -1.468351230e-02,
                5.297327110e-05, -5.416688220e-08,
                1.963185660e-11, -1.025263080e+04,
                -4.976497480e+00]  ),
       NASA(   [700.0, 3500.0], [5.053464050e-01, 1.236978450e-02,
                -4.998079220e-06, 1.043927650e-09,
                -8.628974160e-14,
                -9.589825010e+03, 1.617527750e+01]  )
               ),
    transport = gas_transport(
                   geom = "nonlinear",
                   diam = 3.7460000000000004, 
                   well_depth = 141.4, 
                   polar = 2.6, 
                   rot_relax = 13.0) 
        )

species(name = "CH3",
    atoms = "C:1  H:3", 
    thermo = (
       NASA(   [300.0, 1060.0], [3.478293100e+00, 3.547647730e-03,
                1.474084400e-06, -1.943759550e-09,
                5.219212320e-13, 1.643995160e+04,
                2.408759560e+00]  ),
       NASA(   [1060.0, 3500.0], [2.788051040e+00, 6.152334770e-03,
                -2.211793490e-06, 3.744026480e-10,
                -2.481513490e-14, 1.658628290e+04,
                5.778998180e+00]  )
               ),
    transport = gas_transport(
                   geom = "linear",
                   diam = 3.8, 
                   well_depth = 144.0, 
                   polar = 0.0, 
                   rot_relax = 0.0) 
        )

species(name = "CH2",
    atoms = "C:1  H:2", 
    thermo = (
       NASA(   [300.0, 1800.0], [3.764894600e+00, 1.438391910e-03,
                4.755830770e-07, -4.317885910e-10,
                7.582928740e-14, 4.586456990e+04,
                1.489531530e+00]  ),
       NASA(   [1800.0, 3500.0], [2.812729720e+00, 3.554313880e-03,
                -1.287685230e-06, 2.212737440e-10,
                -1.487381470e-14, 4.620734920e+04,
                6.642846520e+00]  )
               ),
    transport = gas_transport(
                   geom = "linear",
                   diam = 3.8, 
                   well_depth = 144.0, 
                   polar = 0.0, 
                   rot_relax = 0.0) 
        )

species(name = "CH2(S)",
    atoms = "C:1  H:2", 
    thermo = (
       NASA(   [300.0, 970.0], [4.181854340e+00, -2.211343140e-03,
                7.715275410e-06, -5.959503810e-09,
                1.583146280e-12, 5.036694070e+04,
                -7.030026020e-01]  ),
       NASA(   [970.0, 3500.0], [2.759342990e+00, 3.654683070e-03,
                -1.355899140e-06, 2.749804110e-10,
                -2.367954720e-14, 5.064290790e+04,
                6.116463830e+00]  )
               ),
    transport = gas_transport(
                   geom = "linear",
                   diam = 3.8, 
                   well_depth = 144.0, 
                   polar = 0.0, 
                   rot_relax = 0.0) 
        )

species(name = "C",
    atoms = "C:1", 
    thermo = (
       NASA(   [200.0, 700.0], [2.544951920e+00, -2.477252810e-04,
                5.480182770e-07, -5.485512500e-10,
                2.041173310e-13, 8.544341050e+04,
                4.568742730e+00]  ),
       NASA(   [700.0, 3500.0], [2.494725310e+00, 3.928394760e-05,
                -6.700149800e-08, 3.718186940e-11,
                -5.073068850e-15, 8.545044220e+04,
                4.793142540e+00]  )
               ),
    transport = gas_transport(
                   geom = "atom",
                   diam = 3.2980000000000005, 
                   well_depth = 71.4, 
                   polar = 0.0, 
                   rot_relax = 0.0) 
        )

species(name = "CH",
    atoms = "C:1  H:1", 
    thermo = (
       NASA(   [300.0, 1590.0], [3.772643320e+00, -1.585473500e-03,
                2.835122380e-06, -1.361460580e-09,
                2.239953320e-13, 7.063124920e+04,
                8.794079040e-01]  ),
       NASA(   [1590.0, 3500.0], [2.279901280e+00, 2.169852380e-03,
                -7.076378850e-07, 1.239734940e-10,
                -9.563485150e-15, 7.110594120e+04,
                8.773260610e+00]  )
               ),
    transport = gas_transport(
                   geom = "linear",
                   diam = 2.7500000000000004, 
                   well_depth = 80.0, 
                   polar = 0.0, 
                   rot_relax = 0.0) 
        )

species(name = "CH3O2",
    atoms = "C:1  H:3  O:2", 
    thermo = (
       NASA(   [300.0, 1800.0], [1.442896320e+00, 1.807333140e-02,
                -1.099465450e-05, 3.423339840e-09,
                -4.344521420e-13, 3.213663900e+02,
                1.930412930e+01]  ),
       NASA(   [1800.0, 3500.0], [5.641418170e+00, 8.743282810e-03,
                -3.219614060e-06, 5.436952180e-10,
                -3.450150080e-14,
                -1.190101480e+03,
                -3.419146830e+00]  )
               ),
    transport = gas_transport(
                   geom = "nonlinear",
                   diam = 3.6260000000000003, 
                   well_depth = 481.8, 
                   polar = 0.0, 
                   rot_relax = 1.0) 
        )

species(name = "CH3OH",
    atoms = "C:1  H:4  O:1", 
    thermo = (
       NASA(   [300.0, 1800.0], [8.473304790e-01, 1.630869040e-02,
                -8.483449610e-06, 2.293043410e-09,
                -2.599520130e-13,
                -2.509625440e+04, 1.959332970e+01]  ),
       NASA(   [1800.0, 3500.0], [2.717015300e+00, 1.215383530e-02,
                -5.021070310e-06, 1.010680700e-09,
                -8.184608230e-14,
                -2.576934090e+04, 9.474205400e+00]  )
               ),
    transport = gas_transport(
                   geom = "nonlinear",
                   diam = 3.6260000000000003, 
                   well_depth = 481.8, 
                   polar = 0.0, 
                   rot_relax = 1.0) 
        )

species(name = "CH3O",
    atoms = "C:1  H:3  O:1", 
    thermo = (
       NASA(   [300.0, 1740.0], [8.896609850e-01, 1.701197670e-02,
                -1.138073510e-05, 3.882809280e-09,
                -5.328414790e-13, 1.603161210e+03,
                1.850011340e+01]  ),
       NASA(   [1740.0, 3500.0], [5.722380620e+00, 5.902276370e-03,
                -1.803407200e-06, 2.133350090e-10,
                -5.618164090e-15,
                -7.862522250e+01,
                -7.491736770e+00]  )
               ),
    transport = gas_transport(
                   geom = "nonlinear",
                   diam = 3.6900000000000004, 
                   well_depth = 417.0, 
                   polar = 0.0, 
                   rot_relax = 2.0, 
                   dipole= 1.7000004851748343) 
        )

species(name = "CH2O",
    atoms = "C:1  H:2  O:1", 
    thermo = (
       NASA(   [300.0, 700.0], [4.326212960e+00, -7.011518530e-03,
                3.151769610e-05, -3.364786380e-08,
                1.234540230e-11, -1.432701690e+04,
                2.620289020e+00]  ),
       NASA(   [700.0, 3500.0], [1.333356520e+00, 1.009051830e-02,
                -5.129525620e-06, 1.254252070e-09,
                -1.196391090e-13,
                -1.390801700e+04, 1.599161440e+01]  )
               ),
    transport = gas_transport(
                   geom = "nonlinear",
                   diam = 3.59, 
                   well_depth = 498.0, 
                   polar = 0.0, 
                   rot_relax = 2.0) 
        )

species(name = "HCO",
    atoms = "C:1  H:1  O:1", 
    thermo = (
       NASA(   [200.0, 770.0], [4.034839790e+00, -2.158368640e-03,
                1.182338750e-05, -1.184594060e-08,
                4.005939540e-12, 3.836363920e+03,
                4.200087700e+00]  ),
       NASA(   [770.0, 3500.0], [2.600493180e+00, 5.292782580e-03,
                -2.691842110e-06, 7.213577980e-10,
                -7.435214090e-14, 4.057253300e+03,
                1.074509330e+01]  )
               ),
    transport = gas_transport(
                   geom = "nonlinear",
                   diam = 3.59, 
                   well_depth = 498.0, 
                   polar = 0.0, 
                   rot_relax = 0.0) 
        )

species(name = "C2H6",
    atoms = "C:2  H:6", 
    thermo = (
       NASA(   [300.0, 1800.0], [-2.417787240e-01, 2.534757090e-02,
                -1.396451120e-05, 4.032574520e-09,
                -4.877543870e-13,
                -1.103911210e+04, 2.195726250e+01]  ),
       NASA(   [1800.0, 3500.0], [4.079591410e+00, 1.574452610e-02,
                -5.961973930e-06, 1.068671820e-09,
                -7.610123400e-14,
                -1.259480530e+04,
                -1.430894120e+00]  )
               ),
    transport = gas_transport(
                   geom = "nonlinear",
                   diam = 4.35, 
                   well_depth = 247.49999999999997, 
                   polar = 0.0, 
                   rot_relax = 1.5) 
        )

species(name = "C2H5",
    atoms = "C:2  H:5", 
    thermo = (
       NASA(   [300.0, 1800.0], [6.754218010e-01, 2.115426170e-02,
                -1.208780170e-05, 3.649511800e-09,
                -4.597532370e-13, 1.334571860e+04,
                1.956284390e+01]  ),
       NASA(   [1800.0, 3500.0], [5.197913600e+00, 1.110428000e-02,
                -3.712816860e-06, 5.476655710e-10,
                -2.894126040e-14, 1.171762150e+04,
                -4.913825130e+00]  )
               ),
    transport = gas_transport(
                   geom = "nonlinear",
                   diam = 4.35, 
                   well_depth = 247.49999999999997, 
                   polar = 0.0, 
                   rot_relax = 1.5) 
        )

species(name = "C2H4",
    atoms = "C:2  H:4", 
    thermo = (
       NASA(   [300.0, 1650.0], [-6.029324500e-02, 2.081339700e-02,
                -1.343078670e-05, 4.606383010e-09,
                -6.516874810e-13, 5.511516760e+03,
                2.106421720e+01]  ),
       NASA(   [1650.0, 3500.0], [4.604027180e+00, 9.505953500e-03,
                -3.151292610e-06, 4.530520740e-10,
                -2.239491590e-14, 3.972291020e+03,
                -3.774209050e+00]  )
               ),
    transport = gas_transport(
                   geom = "nonlinear",
                   diam = 3.496, 
                   well_depth = 238.4, 
                   polar = 0.0, 
                   rot_relax = 1.5) 
        )

species(name = "C2H3",
    atoms = "C:2  H:3", 
    thermo = (
       NASA(   [300.0, 1450.0], [1.234212140e+00, 1.562222040e-02,
                -1.101715720e-05, 4.279893370e-09,
                -6.915415090e-13, 3.469676920e+04,
                1.686370480e+01]  ),
       NASA(   [1450.0, 3500.0], [4.187283760e+00, 7.475815880e-03,
                -2.589842270e-06, 4.052657950e-10,
                -2.350227210e-14, 3.384037850e+04,
                1.519587510e+00]  )
               ),
    transport = gas_transport(
                   geom = "nonlinear",
                   diam = 3.7210000000000005, 
                   well_depth = 265.3, 
                   polar = 0.0, 
                   rot_relax = 1.0) 
        )

species(name = "NO",
    atoms = "N:1  O:1", 
    thermo = (
       NASA(   [200.0, 800.0], [4.250265960e+00, -4.956713640e-03,
                1.209392930e-05, -1.070344050e-08,
                3.402363580e-12, 9.842463120e+03,
                2.157999810e+00]  ),
       NASA(   [800.0, 3500.0], [2.846215140e+00, 2.063540460e-03,
                -1.069047150e-06, 2.657065210e-10,
                -2.549486720e-14, 1.006711130e+04,
                8.618428500e+00]  )
               ),
    transport = gas_transport(
                   geom = "linear",
                   diam = 3.621, 
                   well_depth = 97.5, 
                   polar = 1.76, 
                   rot_relax = 4.0) 
        )

species(name = "N2O",
    atoms = "N:2  O:1", 
    thermo = (
       NASA(   [200.0, 1420.0], [2.516206810e+00, 9.169905840e-03,
                -7.894208400e-06, 3.421982450e-09,
                -5.845820780e-13, 8.720299700e+03,
                9.715093200e+00]  ),
       NASA(   [1420.0, 3500.0], [4.855437220e+00, 2.580524400e-03,
                -9.335941960e-07, 1.540884630e-10,
                -9.248628610e-15, 8.055958270e+03,
                -2.390608550e+00]  )
               ),
    transport = gas_transport(
                   geom = "linear",
                   diam = 3.8280000000000003, 
                   well_depth = 232.4, 
                   polar = 0.0, 
                   rot_relax = 1.0) 
        )

species(name = "NO2",
    atoms = "N:1  O:2", 
    thermo = (
       NASA(   [200.0, 1800.0], [2.865922210e+00, 6.749293180e-03,
                -4.549326200e-06, 1.467566180e-09,
                -1.814757340e-13, 2.977841340e+03,
                1.070670520e+01]  ),
       NASA(   [1800.0, 3500.0], [4.198137940e+00, 3.788813780e-03,
                -2.082260030e-06, 5.538379700e-10,
                -5.456903770e-14, 2.498243680e+03,
                3.496475740e+00]  )
               ),
    transport = gas_transport(
                   geom = "nonlinear",
                   diam = 3.5000000000000004, 
                   well_depth = 200.0, 
                   polar = 0.0, 
                   rot_relax = 1.0) 
        )

species(name = "HNO",
    atoms = "H:1  N:1  O:1", 
    thermo = (
       NASA(   [200.0, 700.0], [4.471869280e+00, -5.349728680e-03,
                1.843538690e-05, -1.833909570e-08,
                6.590880640e-12, 1.162445450e+04,
                2.013716400e+00]  ),
       NASA(   [700.0, 3500.0], [2.885528450e+00, 3.715076020e-03,
                -9.891945740e-07, 1.605056760e-10,
                -1.611986920e-14, 1.184654220e+04,
                9.101085850e+00]  )
               ),
    transport = gas_transport(
                   geom = "nonlinear",
                   diam = 3.492, 
                   well_depth = 116.7, 
                   polar = 0.0, 
                   rot_relax = 1.0) 
        )

species(name = "N",
    atoms = "N:1", 
    thermo = (
       NASA(   [200.0, 1800.0], [2.505542880e+00, -3.264970780e-05,
                5.567950960e-08, -3.394111930e-11,
                6.723119120e-15, 5.610438590e+04,
                4.170316200e+00]  ),
       NASA(   [1800.0, 3500.0], [2.422155580e+00, 1.526554020e-04,
                -9.874141500e-08, 2.325181580e-11,
                -1.220344070e-15, 5.613440540e+04,
                4.621625660e+00]  )
               ),
    transport = gas_transport(
                   geom = "atom",
                   diam = 3.2980000000000005, 
                   well_depth = 71.4, 
                   polar = 0.0, 
                   rot_relax = 0.0) 
        )

species(name = "NH",
    atoms = "H:1  N:1", 
    thermo = (
       NASA(   [200.0, 1670.0], [3.662982860e+00, -1.001961060e-03,
                1.818251200e-06, -8.583594830e-10,
                1.388520240e-13, 4.209356240e+04,
                1.156122760e+00]  ),
       NASA(   [1670.0, 3500.0], [2.486628390e+00, 1.815654440e-03,
                -7.125411660e-07, 1.519368730e-10,
                -1.238994490e-14, 4.248646480e+04,
                7.434615470e+00]  )
               ),
    transport = gas_transport(
                   geom = "linear",
                   diam = 2.6500000000000004, 
                   well_depth = 80.0, 
                   polar = 0.0, 
                   rot_relax = 4.0) 
        )

species(name = "NNH",
    atoms = "H:1  N:2", 
    thermo = (
       NASA(   [200.0, 740.0], [4.291675620e+00, -3.833809230e-03,
                1.510016010e-05, -1.512016140e-08,
                5.237232100e-12, 2.878999690e+04,
                3.143358910e+00]  ),
       NASA(   [740.0, 3500.0], [2.706916390e+00, 4.732456910e-03,
                -2.263892920e-06, 5.231295470e-10,
                -4.766350060e-14, 2.902454120e+04,
                1.031172710e+01]  )
               ),
    transport = gas_transport(
                   geom = "nonlinear",
                   diam = 3.798, 
                   well_depth = 71.4, 
                   polar = 0.0, 
                   rot_relax = 1.0) 
        )

species(name = "HCN",
    atoms = "C:1  H:1  N:1", 
    thermo = (
       NASA(   [200.0, 780.0], [2.245726770e+00, 1.019036420e-02,
                -1.385875560e-05, 1.085534030e-08,
                -3.407138410e-12, 1.459091350e+04,
                8.966563410e+00]  ),
       NASA(   [780.0, 3500.0], [3.497863010e+00, 3.769152700e-03,
                -1.510272040e-06, 3.010808160e-10,
                -2.436293690e-14, 1.439558020e+04,
                3.236837340e+00]  )
               ),
    transport = gas_transport(
                   geom = "linear",
                   diam = 3.63, 
                   well_depth = 569.0, 
                   polar = 0.0, 
                   rot_relax = 1.0) 
        )

species(name = "CH3NO2",
    atoms = "C:1  H:3  N:1  O:2", 
    thermo = (
       NASA(   [200.0, 1800.0], [5.586767900e-01, 2.523027050e-02,
                -1.595429130e-05, 4.978483180e-09,
                -6.199247000e-13,
                -1.091293210e+04, 2.281222520e+01]  ),
       NASA(   [1800.0, 3500.0], [5.699346200e+00, 1.380656070e-02,
                -6.434533110e-06, 1.452646820e-09,
                -1.302252060e-13,
                -1.276357310e+04,
                -5.010150090e+00]  )
               ),
    transport = gas_transport(
                   geom = "nonlinear",
                   diam = 4.5, 
                   well_depth = 200.0, 
                   polar = 0.0, 
                   rot_relax = 1.0) 
        )

species(name = "CN",
    atoms = "C:1  N:1", 
    thermo = (
       NASA(   [200.0, 890.0], [3.764691380e+00, -2.323134750e-03,
                6.220913600e-06, -5.149790800e-09,
                1.498178120e-12, 5.169616580e+04,
                3.381107100e+00]  ),
       NASA(   [890.0, 3500.0], [2.804989420e+00, 1.990132490e-03,
                -1.048637940e-06, 2.955661620e-10,
                -3.141653360e-14, 5.186699270e+04,
                7.899276580e+00]  )
               ),
    transport = gas_transport(
                   geom = "linear",
                   diam = 3.856, 
                   well_depth = 75.0, 
                   polar = 0.0, 
                   rot_relax = 1.0) 
        )

species(name = "NCN",
    atoms = "C:1  N:2", 
    thermo = (
       NASA(   [200.0, 1540.0], [2.823672160e+00, 9.744768680e-03,
                -8.761428430e-06, 3.708561720e-09,
                -6.010001190e-13, 5.239778360e+04,
                8.520964120e+00]  ),
       NASA(   [1540.0, 3500.0], [6.261785270e+00, 8.146047440e-04,
                -6.321680580e-08,
                -5.689785670e-11, 1.027578660e-14,
                5.133884470e+04, -9.550461030e+00]  )
               ),
    transport = gas_transport(
                   geom = "linear",
                   diam = 3.8280000000000003, 
                   well_depth = 232.4, 
                   polar = 0.0, 
                   rot_relax = 1.0) 
        )

species(name = "NCO",
    atoms = "C:1  N:1  O:1", 
    thermo = (
       NASA(   [200.0, 1630.0], [2.901007260e+00, 8.074829340e-03,
                -6.377795480e-06, 2.450973150e-09,
                -3.678892770e-13, 1.422415660e+04,
                9.254360790e+00]  ),
       NASA(   [1630.0, 3500.0], [5.497234990e+00, 1.703718340e-03,
                -5.148099030e-07, 5.302403570e-11,
                -1.056708050e-16, 1.337778640e+04,
                -4.539402230e+00]  )
               ),
    transport = gas_transport(
                   geom = "linear",
                   diam = 3.8280000000000003, 
                   well_depth = 232.4, 
                   polar = 0.0, 
                   rot_relax = 1.0) 
        )

species(name = "H2CN",
    atoms = "C:1  H:2  N:1", 
    thermo = (
       NASA(   [200.0, 700.0], [3.318307550e+00, 2.203178540e-03,
                1.021772320e-05, -1.307034840e-08,
                4.977646470e-12, 2.754008070e+04,
                7.062507740e+00]  ),
       NASA(   [700.0, 3500.0], [2.095161040e+00, 9.192587180e-03,
                -4.759581050e-06, 1.193750900e-09,
                -1.166746950e-13, 2.771132120e+04,
                1.252721690e+01]  )
               ),
    transport = gas_transport(
                   geom = "linear",
                   diam = 3.63, 
                   well_depth = 569.0, 
                   polar = 0.0, 
                   rot_relax = 1.0) 
        )

#---------------------------------------------------------------------------
#  Reaction Data
#---------------------------------------------------------------------------

# Dummy reaction
reaction('CH4 + 2.0 O2 => 1.0 CO2 + 2.0 H2O ', [0.0, 0.0, 0.0])

##  Reaction 1
#three_body_reaction( "H2 + M <=> 2 H + M",  [4.577000E+19, -1.400000E+00, 1.044000E+05],
#       efficiencies = "CH4:2.0  CO:1.9  CO2:3.8  H2:2.5  H2O:12.0") 

##  Reaction 2
#reaction( "H2 + O <=> H + OH", [5.080000E+04, 2.670000E+00, 6.292000E+03])

##  Reaction 3
#reaction( "H2 + OH <=> H + H2O", [4.380000E+13, 0.000000E+00, 6.990000E+03])

##  Reaction 4